*KEYWORD_ID
AFSD
*PARAMETER
Rboltz    5.6704E-14
*PARAMETER
Rambient       298.0
*PARAMETER
Rabszero         0.0
*TOOL_FILE
toolpath.crs
*P_Rs_Rp_w_v_mu_slip
5.0 15.0 5.0 41.888 1.67 0.2 0.90
*SCALAR_OUT
temp
solid_rate
theta_hist
nid_true
*CONTROL_TERMINATION
$$  ENDTIM    ENDCYC     DTMIN    ENDENG    ENDMAS
   840.1
*CONTROL_TIMESTEP
$$  DTINIT    TSSFAC      ISDO    TSLIMT     DT2MS      LCTM     EROD       E     MSIST
    1.0E-1       1.0
*CONTROL_SOLUTION
$$    SOLN
         0
*DATABASE_NODOUT
$$      DT    BINARY      LCUR      IOPT      DTHF     BINHF
    10.000         0
*MAT_THERMAL_ISOTROPIC_TD
$HMNAME MATS       1MATT1_1
         1   0.00280   763   913     390
../0_properties/Al2024_cp.txt
../0_properties/Al2024_cond.txt
*MAT_THERMAL_ISOTROPIC_TD
$HMNAME MATS       2MATT1_2
         2   0.00280   763   913     390
../0_properties/Al2024_cp.txt
../0_properties/Al2024_cond.txt
*PART
$HWCOLOR COMPS       1       3
Substrate
         1         0         1
$HWCOLOR COMPS       2       4
Build
         2         0         2
*LOAD_NODE_SET
$HMNAME LOADCOLS       1LoadNode_1
         3         1               298.0
$	 moving flux
         2         5                 0.0
$	 Radiation
         2         4                 0.7
$	 convection
         2         3             0.00002
$	 convection_2
         2         3             0.00100
*INITIAL_TEMPERATURE_SET
$HMNAME LOADCOLS       1InitialTemp_1
$HWCOLOR LOADCOLS       1       3
         1     298.0
*DEFINE_CURVE
         1                 1.0       1.0
          0.10000000      12161.00000000
          0.10000000      14561.00000000
          0.10000000      14562.00000000
          0.10000000      14563.00000000
          0.10000000      14564.00000000
          0.10000000      14641.00000000
          0.10000000      14642.00000000
          0.10000000      14643.00000000
          0.10000000      14644.00000000
          0.10000000      14645.00000000
          0.10000000      14646.00000000
          0.10000000      24161.00000000
          0.10000000      24162.00000000
          0.10000000      24163.00000000
          0.10000000      21763.00000000
          0.10000000      22565.00000000
          0.10000000      21841.00000000
          0.10000000      21842.00000000
          0.10000000      21843.00000000
$ ... 15981 like lines cut
*NODE
$#   nid               x               y               z      tc      rc
       1       15.000000      100.000000       -5.000000       0       0
       2       15.000000      100.000000        0.000000       0       0
       3       75.000000      100.000000        0.000000       0       0
       4       75.000000      100.000000       -5.000000       0       0
       5       15.000000     -100.000000        0.000000       0       0
       6       75.000000     -100.000000        0.000000       0       0
       7       75.000000     -100.000000       -5.000000       0       0
       8       15.000000     -100.000000       -5.000000       0       0
       9      -15.000000     -100.000000       -5.000000       0       0
      10      -15.000000     -100.000000        0.000000       0       0
      11      -15.000000      100.000000        0.000000       0       0
      12      -15.000000      100.000000       -5.000000       0       0
      13      -15.000000     -100.000000       15.000000       0       0
      14      -15.000000      100.000000       15.000000       0       0
      15       15.000000      100.000000       15.000000       0       0
      16       15.000000     -100.000000       15.000000       0       0
      17      -75.000000     -100.000000        0.000000       0       0
      18      -75.000000      100.000000        0.000000       0       0
      19      -75.000000      100.000000       -5.000000       0       0
      20      -75.000000     -100.000000       -5.000000       0       0
$ ... 35458 like lines cut
*ELEMENT_SOLID
$#   eid     pid      n1      n2      n3      n4      n5      n6      n7      n8
       1       2     254    3867   13596    1181       1      21    1113      58
       2       2    3867    3868   13597   13596      21      22    1114    1113
       3       2    3868     334    2524   13597      22       2      23    1114
       4       2    1181   13596   13598    1182      58    1113    1115      57
       5       2   13596   13597   13599   13598    1113    1114    1116    1115
       6       2   13597    2524    2525   13599    1114      23      24    1116
       7       2    1182   13598   13600    1183      57    1115    1117      56
       8       2   13598   13599   13601   13600    1115    1116    1118    1117
       9       2   13599    2525    2526   13601    1116      24      25    1118
      10       2    1183   13600   13602    1184      56    1117    1119      55
      11       2   13600   13601   13603   13602    1117    1118    1120    1119
      12       2   13601    2526    2527   13603    1118      25      26    1120
      13       2    1184   13602   13604    1185      55    1119    1121      54
      14       2   13602   13603   13605   13604    1119    1120    1122    1121
      15       2   13603    2527    2528   13605    1120      26      27    1122
      16       2    1185   13604   13606    1186      54    1121    1123      53
      17       2   13604   13605   13607   13606    1121    1122    1124    1123
      18       2   13605    2528    2529   13607    1122      27      28    1124
      19       2    1186   13606   13608    1187      53    1123    1125      52
      20       2   13606   13607   13609   13608    1123    1124    1126    1125
$ ... 29420 like lines cut
*SET_NODE_LIST
$#     sid       da1       da2       da3       da4    solver
         1
$#    nid1      nid2      nid3      nid4      nid5      nid6      nid7      nid8
         1         2         3         4         5         6         7         8
         9        10        11        12        13        14        15        16
        17        18        19        20        21        22        23        24
        25        26        27        28        29        30        31        32
        33        34        35        36        37        38        39        40
        41        42        43        44        45        46        47        48
        49        50        51        52        53        54        55        56
        57        58        59        60        61        62        63        64
        65        66        67        68        69        70        71        72
        73        74        75        76        77        78        79        80
        81        82        83        84        85        86        87        88
        89        90        91        92        93        94        95        96
        97        98        99       100       101       102       103       104
       105       106       107       108       109       110       111       112
       113       114       115       116       117       118       119       120
       121       122       123       124       125       126       127       128
       129       130       131       132       133       134       135       136
       137       138       139       140       141       142       143       144
       145       146       147       148       149       150       151       152
       153       154       155       156       157       158       159       160
$ ... 4415 like lines cut
*SET_NODE_LIST
$#     sid       da1       da2       da3       da4    solver
         2
$#    nid1      nid2      nid3      nid4      nid5      nid6      nid7      nid8
         2         3         5         6        10        11        13        14
        15        16        17        18        23        24        25        26
        27        28        29        30        31        32        33        34
        35        36        37        38        39        61        62        63
        64        65        66        67        68        69        70        71
        72        73        74        75        76        77       255       256
       257       258       259       260       261       262       263       264
       265       266       267       268       269       270       271       272
       273       274       275       276       277       278       279       280
       281       282       283       284       285       286       287       288
       289       290       291       292       293       294       295       296
       297       298       299       300       301       302       303       304
       305       306       307       308       309       310       311       312
       313       314       315       316       317       318       319       320
       321       322       323       324       325       326       327       328
       329       330       331       332       333       334       335       336
       337       338       339       340       341       342       343       344
       345       346       347       348       349       350       351       352
       353       354       355       356       357       358       359       360
       361       362       363       364       365       366       367       368
$ ... 2684 like lines cut
*SET_NODE_LIST
$#     sid       da1       da2       da3       da4    solver
         3
$#    nid1      nid2      nid3      nid4      nid5      nid6      nid7      nid8
         2         3         5         6        10        11        17        18
        23        24        25        26        27        28        29        30
        31        32        33        34        35        36        37        38
        39        61        62        63        64        65        66        67
        68        69        70        71        72        73        74        75
        76        77       255       256       257       258       259       260
       261       262       263       264       265       266       267       268
       269       270       271       272       273       274       275       276
       277       278       279       280       281       282       283       284
       285       286       287       288       289       290       291       292
       293       294       295       296       297       298       299       300
       301       302       303       304       305       306       307       308
       309       310       311       312       313       314       315       316
       317       318       319       320       321       322       323       324
       325       326       327       328       329       330       331       332
       333       334       335       336       337       338       339       340
       341       342       343       344       345       346       347       348
       349       350       351       352       353       354       355       356
       357       358       359       360       361       362       363       364
       365       366       367       368       369       370       371       372
$ ... 558 like lines cut
*SET_SOLID
$#     sid    solver
         1MECH
$#      k1        k2        k3        k4        k5        k6        k7        k8
      9121      9122      9123      9124      9125      9126      9127      9128
      9129      9130      9131      9132      9133      9134      9135      9136
      9137      9138      9139      9140      9141      9142      9143      9144
      9145      9146      9147      9148      9149      9150      9151      9152
      9153      9154      9155      9156      9157      9158      9159      9160
      9161      9162      9163      9164      9165      9166      9167      9168
      9169      9170      9171      9172      9173      9174      9175      9176
      9177      9178      9179      9180      9181      9182      9183      9184
      9185      9186      9187      9188      9189      9190      9191      9192
      9193      9194      9195      9196      9197      9198      9199      9200
      9201      9202      9203      9204      9205      9206      9207      9208
      9209      9210      9211      9212      9213      9214      9215      9216
      9217      9218      9219      9220      9221      9222      9223      9224
      9225      9226      9227      9228      9229      9230      9231      9232
      9233      9234      9235      9236      9237      9238      9239      9240
      9241      9242      9243      9244      9245      9246      9247      9248
      9249      9250      9251      9252      9253      9254      9255      9256
      9257      9258      9259      9260      9261      9262      9263      9264
      9265      9266      9267      9268      9269      9270      9271      9272
      9273      9274      9275      9276      9277      9278      9279      9280
$ ... 1980 like lines cut

*SET_SOLID
$#     sid    solver
         2MECH
$#      k1        k2        k3        k4        k5        k6        k7        k8
         1         2         3         4         5         6         7         8
         9        10        11        12        13        14        15        16
        17        18        19        20        21        22        23        24
        25        26        27        28        29        30        31        32
        33        34        35        36        37        38        39        40
        41        42        43        44        45        46        47        48
        49        50        51        52        53        54        55        56
        57        58        59        60        61        62        63        64
        65        66        67        68        69        70        71        72
        73        74        75        76        77        78        79        80
        81        82        83        84        85        86        87        88
        89        90        91        92        93        94        95        96
        97        98        99       100       101       102       103       104
       105       106       107       108       109       110       111       112
       113       114       115       116       117       118       119       120
       121       122       123       124       125       126       127       128
       129       130       131       132       133       134       135       136
       137       138       139       140       141       142       143       144
       145       146       147       148       149       150       151       152
       153       154       155       156       157       158       159       160
$ ... 1660 like lines cut

*END